examples/IEEE39.raw
0,   100.00, 33, 0, 1, 50.00     / PSS(R)E-33.1    MON, AUG 05 2013  14:16
NEW ENGLAND TEST SYSTEM, 39 BUSES, 9 GENERATORS
CREATED BY PABLO LEDESMA PABLOLE@ING.UC3M.ES
     1,'            ',   1.0000,1,   1,   1,   1,1.04550,  -9.4312,1.10000,0.90000,1.10000,0.90000
     2,'            ',   1.0000,1,   1,   1,   1,1.04360,  -6.8644,1.10000,0.90000,1.10000,0.90000
     3,'            ',   1.0000,1,   1,   1,   1,1.02038,  -9.7433,1.10000,0.90000,1.10000,0.90000
     4,'            ',   1.0000,1,   1,   2,   1,0.99780, -10.5671,1.10000,0.90000,1.10000,0.90000
     5,'            ',   1.0000,1,   1,   2,   1,0.99355,  -9.3409,1.10000,0.90000,1.10000,0.90000
     6,'            ',   1.0000,1,   1,   2,   1,0.99651,  -8.6169,1.10000,0.90000,1.10000,0.90000
     7,'            ',   1.0000,1,   1,   2,   1,0.94083, -10.7613,1.10000,0.90000,1.10000,0.90000
     8,'            ',   1.0000,1,   1,   2,   1,0.95460, -11.3722,1.10000,0.90000,1.10000,0.90000
     9,'            ',   1.0000,1,   1,   1,   1,1.01114, -11.1784,1.10000,0.90000,1.10000,0.90000
    10,'            ',   1.0000,1,   1,   2,   1,1.00861,  -6.2037,1.10000,0.90000,1.10000,0.90000
    11,'            ',   1.0000,1,   1,   2,   1,1.00326,  -7.0254,1.10000,0.90000,1.10000,0.90000
    12,'            ',   1.0000,1,   1,   2,   1,0.99056,  -7.0434,1.10000,0.90000,1.10000,0.90000
    13,'            ',   1.0000,1,   1,   2,   1,1.00507,  -6.9288,1.10000,0.90000,1.10000,0.90000
    14,'            ',   1.0000,1,   1,   2,   1,1.00102,  -8.6281,1.10000,0.90000,1.10000,0.90000
    15,'            ',   1.0000,1,   1,   1,   1,0.99393,  -9.0145,1.10000,0.90000,1.10000,0.90000
    16,'            ',   1.0000,1,   1,   1,   1,1.00603,  -7.5205,1.10000,0.90000,1.10000,0.90000
    17,'            ',   1.0000,1,   1,   1,   1,1.01346,  -8.5880,1.10000,0.90000,1.10000,0.90000
    18,'            ',   1.0000,1,   1,   1,   1,1.01474,  -9.4733,1.10000,0.90000,1.10000,0.90000
    19,'            ',   1.0000,1,   1,   1,   1,1.04036,  -2.8109,1.10000,0.90000,1.10000,0.90000
    20,'            ',   1.0000,1,   1,   1,   1,0.98569,  -4.2552,1.10000,0.90000,1.10000,0.90000
    21,'            ',   1.0000,1,   1,   1,   1,1.01363,  -5.0355,1.10000,0.90000,1.10000,0.90000
    22,'            ',   1.0000,1,   1,   1,   1,1.04009,  -0.4920,1.10000,0.90000,1.10000,0.90000
    23,'            ',   1.0000,1,   1,   1,   1,1.03474,  -0.6935,1.10000,0.90000,1.10000,0.90000
    24,'            ',   1.0000,1,   1,   1,   1,1.01384,  -7.4014,1.10000,0.90000,1.10000,0.90000
    25,'            ',   1.0000,1,   1,   1,   1,1.05183,  -5.4698,1.10000,0.90000,1.10000,0.90000
    26,'            ',   1.0000,1,   1,   1,   1,1.03759,  -6.6983,1.10000,0.90000,1.10000,0.90000
    27,'            ',   1.0000,1,   1,   1,   1,1.02048,  -8.7542,1.10000,0.90000,1.10000,0.90000
    28,'            ',   1.0000,1,   1,   1,   1,1.03435,  -3.0804,1.10000,0.90000,1.10000,0.90000
    29,'            ',   1.0000,1,   1,   1,   1,1.03407,  -0.2364,1.10000,0.90000,1.10000,0.90000
    30,'            ',   1.0000,2,   1,   1,   1,1.04750,  -4.4327,1.10000,0.90000,1.10000,0.90000
    31,'            ',   1.0000,2,   1,   2,   1,1.04000,  -1.5868,1.10000,0.90000,1.10000,0.90000
    32,'            ',   1.0000,2,   1,   2,   1,0.98310,   1.8610,1.10000,0.90000,1.10000,0.90000
    33,'            ',   1.0000,2,   1,   1,   1,0.99720,   2.4285,1.10000,0.90000,1.10000,0.90000
    34,'            ',   1.0000,2,   1,   1,   1,1.01230,   0.9475,1.10000,0.90000,1.10000,0.90000
    35,'            ',   1.0000,2,   1,   1,   1,1.04930,   4.5162,1.10000,0.90000,1.10000,0.90000
    36,'            ',   1.0000,2,   1,   1,   1,1.06350,   7.2258,1.10000,0.90000,1.10000,0.90000
    37,'            ',   1.0000,2,   1,   1,   1,1.02780,   1.3436,1.10000,0.90000,1.10000,0.90000
    38,'            ',   1.0000,2,   1,   1,   1,1.02650,   6.8905,1.10000,0.90000,1.10000,0.90000
    39,'            ',   1.0000,3,   1,   1,   1,1.03000, -10.9600,1.10000,0.90000,1.10000,0.90000
0 / END OF BUS DATA, BEGIN LOAD DATA
     1,'1 ',1,   1,   1,     0.000,     0.000,     0.000,     0.000,     0.000,     0.000,   1,1,0
     2,'1 ',1,   1,   1,     0.000,     0.000,     0.000,     0.000,     0.000,     0.000,   1,1,0
     3,'1 ',1,   1,   1,   322.000,     2.400,     0.000,     0.000,     0.000,     0.000,   1,1,0
     4,'1 ',1,   1,   2,   500.000,   184.000,     0.000,     0.000,     0.000,     0.000,   1,1,0
     5,'1 ',1,   1,   2,     0.000,     0.000,     0.000,     0.000,     0.000,     0.000,   1,1,0
     6,'1 ',1,   1,   2,     0.000,     0.000,     0.000,     0.000,     0.000,     0.000,   1,1,0
     7,'1 ',1,   1,   2,   233.800,   840.000,     0.000,     0.000,     0.000,     0.000,   1,1,0
     8,'1 ',1,   1,   2,   522.000,   176.000,     0.000,     0.000,     0.000,     0.000,   1,1,0
     9,'1 ',1,   1,   1,     0.000,     0.000,     0.000,     0.000,     0.000,     0.000,   1,1,0
    10,'1 ',1,   1,   2,     0.000,     0.000,     0.000,     0.000,     0.000,     0.000,   1,1,0
    11,'1 ',1,   1,   2,     0.000,     0.000,     0.000,     0.000,     0.000,     0.000,   1,1,0
    12,'1 ',1,   1,   2,     8.500,    88.000,     0.000,     0.000,     0.000,     0.000,   1,1,0
    13,'1 ',1,   1,   2,     0.000,     0.000,     0.000,     0.000,     0.000,     0.000,   1,1,0
    14,'1 ',1,   1,   2,     0.000,     0.000,     0.000,     0.000,     0.000,     0.000,   1,1,0
    15,'1 ',1,   1,   1,   320.000,   153.000,     0.000,     0.000,     0.000,     0.000,   1,1,0
    16,'1 ',1,   1,   1,   329.400,   323.000,     0.000,     0.000,     0.000,     0.000,   1,1,0
    17,'1 ',1,   1,   1,     0.000,     0.000,     0.000,     0.000,     0.000,     0.000,   1,1,0
    18,'1 ',1,   1,   1,   158.000,    30.000,     0.000,     0.000,     0.000,     0.000,   1,1,0
    19,'1 ',1,   1,   1,     0.000,     0.000,     0.000,     0.000,     0.000,     0.000,   1,1,0
    20,'1 ',1,   1,   1,   680.000,   103.000,     0.000,     0.000,     0.000,     0.000,   1,1,0
    21,'1 ',1,   1,   1,   274.000,   115.000,     0.000,     0.000,     0.000,     0.000,   1,1,0
    22,'1 ',1,   1,   1,     0.000,     0.000,     0.000,     0.000,     0.000,     0.000,   1,1,0
    23,'1 ',1,   1,   1,   247.500,    84.600,     0.000,     0.000,     0.000,     0.000,   1,1,0
    24,'1 ',1,   1,   1,   308.600,   -92.200,     0.000,     0.000,     0.000,     0.000,   1,1,0
    25,'1 ',1,   1,   1,   224.000,    47.200,     0.000,     0.000,     0.000,     0.000,   1,1,0
    26,'1 ',1,   1,   1,   139.000,    17.000,     0.000,     0.000,     0.000,     0.000,   1,1,0
    27,'1 ',1,   1,   1,   281.000,    75.500,     0.000,     0.000,     0.000,     0.000,   1,1,0
    28,'1 ',1,   1,   1,   206.000,    27.600,     0.000,     0.000,     0.000,     0.000,   1,1,0
    29,'1 ',1,   1,   1,   283.500,   126.900,     0.000,     0.000,     0.000,     0.000,   1,1,0
    31,'1 ',1,   1,   2,     9.200,     4.600,     0.000,     0.000,     0.000,     0.000,   1,1,0
    39,'1 ',1,   1,   1,  1104.000,   250.000,     0.000,     0.000,     0.000,     0.000,   1,1,0
0 / END OF LOAD DATA, BEGIN FIXED SHUNT DATA
     4,'1 ',1,     0.000,   100.000
     5,'1 ',1,     0.000,   200.000
0 / END OF FIXED SHUNT DATA, BEGIN GENERATOR DATA
    30,'1 ',   250.000,   175.207,   800.000,  -500.000,1.04750,     0,  1000.000, 1.40000E-3, 2.00000E-1, 0.00000E+0, 0.00000E+0,1.00000,1,  100.0,  9999.900,     0.000,   1,1.0000
    31,'1 ',   572.930,   774.372,   800.000,  -500.000,1.04000,     0,  1000.000, 2.70000E-2, 2.00000E-1, 0.00000E+0, 0.00000E+0,1.00000,1,  100.0,  9999.900,     0.000,   1,1.0000
    32,'1 ',   650.000,   244.778,   800.000,  -500.000,0.98310,     0,  1000.000, 3.86000E-3, 2.00000E-1, 0.00000E+0, 0.00000E+0,1.00000,1,  100.0,  9999.900,     0.000,   1,1.0000
    33,'1 ',   632.000,   172.224,   800.000,  -500.000,0.99720,     0,  1000.000, 2.22000E-3, 2.00000E-1, 0.00000E+0, 0.00000E+0,1.00000,1,  100.0,  9999.900,     0.000,   1,1.0000
    34,'1 ',   508.000,   196.316,   400.000,  -300.000,1.01230,     0,  1000.000, 1.40000E-3, 2.00000E-1, 0.00000E+0, 0.00000E+0,1.00000,1,  100.0,  9999.900,     0.000,   1,1.0000
    35,'1 ',   650.000,   282.187,   800.000,  -500.000,1.04930,     0,  1000.000, 6.15000E-2, 2.00000E-1, 0.00000E+0, 0.00000E+0,1.00000,1,  100.0,  9999.900,     0.000,   1,1.0000
    36,'1 ',   560.000,   140.745,   800.000,  -500.000,1.06350,     0,  1000.000, 2.68000E-3, 2.00000E-1, 0.00000E+0, 0.00000E+0,1.00000,1,  100.0,  9999.900,     0.000,   1,1.0000
    37,'1 ',   540.000,    25.322,   800.000,  -500.000,1.02780,     0,  1000.000, 6.86000E-3, 2.00000E-1, 0.00000E+0, 0.00000E+0,1.00000,1,  100.0,  9999.900,     0.000,   1,1.0000
    38,'1 ',   830.000,   124.892,   800.000,  -500.000,1.02650,     0,  1000.000, 3.00000E-3, 2.00000E-1, 0.00000E+0, 0.00000E+0,1.00000,1,  100.0,  9999.900,     0.000,   1,1.0000
    39,'1 ',  1005.729,   165.907,  1500.000, -1000.000,1.03000,     0,  1000.000, 1.00000E-3, 2.00000E-2, 0.00000E+0, 0.00000E+0,1.00000,1,  100.0,  9999.900,     0.000,   1,1.0000
0 / END OF GENERATOR DATA, BEGIN BRANCH DATA
     1,     2,'1 ', 3.50000E-3, 4.11000E-2,   0.69870,    0.00,    0.00,    1.00,  0.00000,  0.00000,  0.00000,  0.00000,1,1,   0.00,   1,1.0000
     1,    39,'1 ', 1.00000E-3, 2.50000E-2,   0.75000,    0.00,    0.00,    1.00,  0.00000,  0.00000,  0.00000,  0.00000,1,1,   0.00,   1,1.0000
     2,     3,'1 ', 1.30000E-3, 1.51000E-2,   0.25720,    0.00,    0.00,    1.00,  0.00000,  0.00000,  0.00000,  0.00000,1,1,   0.00,   1,1.0000
     2,    25,'1 ', 7.00000E-3, 8.60000E-3,   0.14600,    0.00,    0.00,    1.00,  0.00000,  0.00000,  0.00000,  0.00000,1,1,   0.00,   1,1.0000
     3,     4,'1 ', 1.30000E-3, 2.13000E-2,   0.22140,    0.00,    0.00,    1.00,  0.00000,  0.00000,  0.00000,  0.00000,1,1,   0.00,   1,1.0000
     3,    18,'1 ', 1.10000E-3, 1.33000E-2,   0.21380,    0.00,    0.00,    1.00,  0.00000,  0.00000,  0.00000,  0.00000,1,1,   0.00,   1,1.0000
     4,     5,'1 ', 8.00000E-4, 1.28000E-2,   0.13420,    0.00,    0.00,    1.00,  0.00000,  0.00000,  0.00000,  0.00000,1,1,   0.00,   1,1.0000
     4,    14,'1 ', 8.00000E-4, 1.29000E-2,   0.13820,    0.00,    0.00,    1.00,  0.00000,  0.00000,  0.00000,  0.00000,1,1,   0.00,   1,1.0000
     5,     6,'1 ', 2.00000E-4, 2.60000E-3,   0.04340,    0.00,    0.00,    1.00,  0.00000,  0.00000,  0.00000,  0.00000,1,2,   0.00,   1,1.0000
     5,     8,'1 ', 8.00000E-4, 1.12000E-2,   0.14760,    0.00,    0.00,    1.00,  0.00000,  0.00000,  0.00000,  0.00000,1,1,   0.00,   1,1.0000
     6,     7,'1 ', 6.00000E-4, 9.20000E-3,   0.11300,    0.00,    0.00,    1.00,  0.00000,  0.00000,  0.00000,  0.00000,1,1,   0.00,   1,1.0000
     6,    11,'1 ', 7.00000E-4, 8.20000E-3,   0.13890,    0.00,    0.00,    1.00,  0.00000,  0.00000,  0.00000,  0.00000,1,1,   0.00,   1,1.0000
     7,     8,'1 ', 4.00000E-4, 4.60000E-3,   0.07800,    0.00,    0.00,    1.00,  0.00000,  0.00000,  0.00000,  0.00000,1,1,   0.00,   1,1.0000
     8,     9,'1 ', 2.30000E-3, 3.63000E-2,   0.38040,    0.00,    0.00,    1.00,  0.00000,  0.00000,  0.00000,  0.00000,1,1,   0.00,   1,1.0000
     9,    39,'1 ', 1.00000E-3, 2.50000E-2,   1.20000,    0.00,    0.00,    1.00,  0.00000,  0.00000,  0.00000,  0.00000,1,1,   0.00,   1,1.0000
    10,    11,'1 ', 4.00000E-4, 4.30000E-3,   0.07290,    0.00,    0.00,    1.00,  0.00000,  0.00000,  0.00000,  0.00000,1,1,   0.00,   1,1.0000
    10,    13,'1 ', 4.00000E-4, 4.30000E-3,   0.07290,    0.00,    0.00,    1.00,  0.00000,  0.00000,  0.00000,  0.00000,1,1,   0.00,   1,1.0000
    13,    14,'1 ', 9.00000E-4, 1.01000E-2,   0.17230,    0.00,    0.00,    1.00,  0.00000,  0.00000,  0.00000,  0.00000,1,1,   0.00,   1,1.0000
    14,    15,'1 ', 1.80000E-3, 2.17000E-2,   0.36600,    0.00,    0.00,    1.00,  0.00000,  0.00000,  0.00000,  0.00000,1,1,   0.00,   1,1.0000
    15,    16,'1 ', 9.00000E-4, 9.40000E-3,   0.17100,    0.00,    0.00,    1.00,  0.00000,  0.00000,  0.00000,  0.00000,1,1,   0.00,   1,1.0000
    16,    17,'1 ', 7.00000E-4, 8.90000E-3,   0.13420,    0.00,    0.00,    1.00,  0.00000,  0.00000,  0.00000,  0.00000,1,1,   0.00,   1,1.0000
    16,    19,'1 ', 1.60000E-3, 1.95000E-2,   0.30400,    0.00,    0.00,    1.00,  0.00000,  0.00000,  0.00000,  0.00000,1,1,   0.00,   1,1.0000
    16,    21,'1 ', 8.00000E-4, 1.35000E-2,   0.25480,    0.00,    0.00,    1.00,  0.00000,  0.00000,  0.00000,  0.00000,1,1,   0.00,   1,1.0000
    16,    24,'1 ', 3.00000E-4, 5.90000E-3,   0.06800,    0.00,    0.00,    1.00,  0.00000,  0.00000,  0.00000,  0.00000,1,1,   0.00,   1,1.0000
    17,    18,'1 ', 7.00000E-4, 8.20000E-3,   0.13190,    0.00,    0.00,    1.00,  0.00000,  0.00000,  0.00000,  0.00000,1,1,   0.00,   1,1.0000
    17,    27,'1 ', 1.30000E-3, 1.73000E-2,   0.32160,    0.00,    0.00,    1.00,  0.00000,  0.00000,  0.00000,  0.00000,1,1,   0.00,   1,1.0000
    21,    22,'1 ', 8.00000E-4, 1.40000E-2,   0.25650,    0.00,    0.00,    1.00,  0.00000,  0.00000,  0.00000,  0.00000,1,1,   0.00,   1,1.0000
    22,    23,'1 ', 6.00000E-4, 9.60000E-3,   0.18460,    0.00,    0.00,    1.00,  0.00000,  0.00000,  0.00000,  0.00000,1,1,   0.00,   1,1.0000
    23,    24,'1 ', 2.20000E-3, 3.50000E-2,   0.36100,    0.00,    0.00,    1.00,  0.00000,  0.00000,  0.00000,  0.00000,1,1,   0.00,   1,1.0000
    25,    26,'1 ', 3.20000E-3, 3.23000E-2,   0.51300,    0.00,    0.00,    1.00,  0.00000,  0.00000,  0.00000,  0.00000,1,1,   0.00,   1,1.0000
    26,    27,'1 ', 1.40000E-3, 1.47000E-2,   0.23960,    0.00,    0.00,    1.00,  0.00000,  0.00000,  0.00000,  0.00000,1,1,   0.00,   1,1.0000
    26,    28,'1 ', 4.30000E-3, 4.74000E-2,   0.78020,    0.00,    0.00,    1.00,  0.00000,  0.00000,  0.00000,  0.00000,1,1,   0.00,   1,1.0000
    26,    29,'1 ', 5.70000E-3, 6.25000E-2,   1.02900,    0.00,    0.00,    1.00,  0.00000,  0.00000,  0.00000,  0.00000,1,1,   0.00,   1,1.0000
    28,    29,'1 ', 1.40000E-3, 1.51000E-2,   0.24900,    0.00,    0.00,    1.00,  0.00000,  0.00000,  0.00000,  0.00000,1,1,   0.00,   1,1.0000
0 / END OF BRANCH DATA, BEGIN TRANSFORMER DATA
     2,    30,     0,'1 ',1,1,1, 0.00000E+0, 0.00000E+0,2,'            ',1,   1,1.0000,   0,1.0000,   0,1.0000,   0,1.0000,'            '
 0.00000E+0, 1.81000E-2,   100.00
1.02500,   0.000,   0.000,     0.00,     0.00,     0.00, 0,      0, 1.20000, 0.80000, 1.20000, 0.80000,   8, 0, 0.00000, 0.00000,  0.000
1.00000,   0.000
    31,     6,     0,'1 ',1,1,1, 0.00000E+0, 0.00000E+0,2,'            ',1,   1,1.0000,   0,1.0000,   0,1.0000,   0,1.0000,'            '
 0.00000E+0, 2.50000E-2,   100.00
0.90000,   0.000,   0.000,     0.00,     0.00,     0.00, 1,      6, 1.20000, 0.80000, 1.17000, 0.98000,   8, 0, 0.00000, 0.00000,  0.000
1.00000,   0.000
    10,    32,     0,'1 ',1,1,1, 0.00000E+0, 0.00000E+0,2,'            ',1,   1,1.0000,   0,1.0000,   0,1.0000,   0,1.0000,'            '
 0.00000E+0, 2.00000E-2,   100.00
1.07000,   0.000,   0.000,     0.00,     0.00,     0.00, 0,      0, 1.20000, 0.80000, 1.20000, 0.80000,   8, 0, 0.00000, 0.00000,  0.000
1.00000,   0.000
    12,    11,     0,'1 ',1,1,1, 0.00000E+0, 0.00000E+0,2,'            ',1,   1,1.0000,   0,1.0000,   0,1.0000,   0,1.0000,'            '
 1.60000E-3, 4.35000E-2,   100.00
1.00600,   0.000,   0.000,     0.00,     0.00,     0.00, 0,      0, 1.20000, 0.80000, 1.20000, 0.80000,   8, 0, 0.00000, 0.00000,  0.000
1.00000,   0.000
    12,    13,     0,'1 ',1,1,1, 0.00000E+0, 0.00000E+0,2,'            ',1,   1,1.0000,   0,1.0000,   0,1.0000,   0,1.0000,'            '
 1.60000E-3, 4.35000E-2,   100.00
1.00600,   0.000,   0.000,     0.00,     0.00,     0.00, 0,      0, 1.20000, 0.80000, 1.20000, 0.80000,   8, 0, 0.00000, 0.00000,  0.000
1.00000,   0.000
    19,    20,     0,'1 ',1,1,1, 0.00000E+0, 0.00000E+0,2,'            ',1,   1,1.0000,   0,1.0000,   0,1.0000,   0,1.0000,'            '
 7.00000E-4, 1.38000E-2,   100.00
1.06000,   0.000,   0.000,     0.00,     0.00,     0.00, 0,      0, 1.20000, 0.80000, 1.20000, 0.80000,   8, 0, 0.00000, 0.00000,  0.000
1.00000,   0.000
    19,    33,     0,'1 ',1,1,1, 0.00000E+0, 0.00000E+0,2,'            ',1,   1,1.0000,   0,1.0000,   0,1.0000,   0,1.0000,'            '
 7.00000E-4, 1.42000E-2,   100.00
1.07000,   0.000,   0.000,     0.00,     0.00,     0.00, 0,      0, 1.20000, 0.80000, 1.20000, 0.80000,   8, 0, 0.00000, 0.00000,  0.000
1.00000,   0.000
    20,    34,     0,'1 ',1,1,1, 0.00000E+0, 0.00000E+0,2,'            ',1,   1,1.0000,   0,1.0000,   0,1.0000,   0,1.0000,'            '
 9.00000E-4, 1.80000E-2,   100.00
1.00900,   0.000,   0.000,     0.00,     0.00,     0.00, 0,      0, 1.20000, 0.80000, 1.20000, 0.80000,   8, 0, 0.00000, 0.00000,  0.000
1.00000,   0.000
    22,    35,     0,'1 ',1,1,1, 0.00000E+0, 0.00000E+0,2,'            ',1,   1,1.0000,   0,1.0000,   0,1.0000,   0,1.0000,'            '
 0.00000E+0, 1.43000E-2,   100.00
1.02500,   0.000,   0.000,     0.00,     0.00,     0.00, 0,      0, 1.20000, 0.80000, 1.20000, 0.80000,   8, 0, 0.00000, 0.00000,  0.000
1.00000,   0.000
    23,    36,     0,'1 ',1,1,1, 0.00000E+0, 0.00000E+0,2,'            ',1,   1,1.0000,   0,1.0000,   0,1.0000,   0,1.0000,'            '
 5.00000E-4, 2.72000E-2,   100.00
1.00000,   0.000,   0.000,     0.00,     0.00,     0.00, 0,      0, 1.20000, 0.80000, 1.20000, 0.80000,   8, 0, 0.00000, 0.00000,  0.000
1.00000,   0.000
    25,    37,     0,'1 ',1,1,1, 0.00000E+0, 0.00000E+0,2,'            ',1,   1,1.0000,   0,1.0000,   0,1.0000,   0,1.0000,'            '
 6.00000E-4, 2.32000E-2,   100.00
1.02500,   0.000,   0.000,     0.00,     0.00,     0.00, 0,      0, 1.20000, 0.80000, 1.20000, 0.80000,   8, 0, 0.00000, 0.00000,  0.000
1.00000,   0.000
    29,    38,     0,'1 ',1,1,1, 0.00000E+0, 0.00000E+0,2,'            ',1,   1,1.0000,   0,1.0000,   0,1.0000,   0,1.0000,'            '
 8.00000E-4, 1.56000E-2,   100.00
1.02500,   0.000,   0.000,     0.00,     0.00,     0.00, 0,      0, 1.20000, 0.80000, 1.20000, 0.80000,   8, 0, 0.00000, 0.00000,  0.000
1.00000,   0.000
0 / END OF TRANSFORMER DATA, BEGIN AREA DATA
0 / END OF AREA DATA, BEGIN TWO-TERMINAL DC DATA
0 / END OF TWO-TERMINAL DC DATA, BEGIN VSC DC LINE DATA
0 / END OF VSC DC LINE DATA, BEGIN IMPEDANCE CORRECTION DATA
0 / END OF IMPEDANCE CORRECTION DATA, BEGIN MULTI-TERMINAL DC DATA
0 / END OF MULTI-TERMINAL DC DATA, BEGIN MULTI-SECTION LINE DATA
0 / END OF MULTI-SECTION LINE DATA, BEGIN ZONE DATA
   1,'EXTERNAL    '
   2,'LOAD CENTER '
0 / END OF ZONE DATA, BEGIN INTER-AREA TRANSFER DATA
0 / END OF INTER-AREA TRANSFER DATA, BEGIN OWNER DATA
0 / END OF OWNER DATA, BEGIN FACTS DEVICE DATA
0 / END OF FACTS DEVICE DATA, BEGIN SWITCHED SHUNT DATA
0 / END OF SWITCHED SHUNT DATA, BEGIN GNE DATA
0 / END OF GNE DATA, BEGIN INDUCTION MACHINE DATA
0 / END OF INDUCTION MACHINE DATA
Q
